REMARK  Name = cbd.pdb
REMARK  8 active torsions:
REMARK  status: ('A' for Active; 'I' for Inactive)
REMARK    1  A    between atoms: C2_4  and  C17_21
REMARK    2  A    between atoms: C11_15  and  C14_18
REMARK    3  A    between atoms: C17_21  and  C18_22
REMARK    4  A    between atoms: C18_22  and  C21_25
REMARK    5  A    between atoms: C21_25  and  C22_26
REMARK    6  A    between atoms: C22_26  and  C23_27
REMARK    7  A    between atoms: C23_27  and  C24_28
REMARK    8  A    between atoms: C24_28  and  C25_29
REMARK                            x       y       z     vdW  Elec       q    Type
REMARK                         _______ _______ _______ _____ _____    ______ ____
ROOT
ATOM      1  C1  E3R A1201      10.606   1.424 -43.407  0.00  0.00    +0.000 A 
ATOM      2  O1  E3R A1201      11.983   2.916 -44.620  0.00  0.00    +0.000 OA
ATOM      3  C2  E3R A1201       9.397   0.759 -43.149  0.00  0.00    +0.000 A 
ATOM      4  C3  E3R A1201       8.324   1.049 -44.015  0.00  0.00    +0.000 A 
ATOM      5  O3  E3R A1201       7.386   2.191 -45.888  0.00  0.00    +0.000 OA
ATOM      6  C4  E3R A1201       8.461   1.943 -45.087  0.00  0.00    +0.000 A 
ATOM      7  C5  E3R A1201       9.705   2.555 -45.395  0.00  0.00    +0.000 A 
ATOM      8  C6  E3R A1201      10.757   2.307 -44.472  0.00  0.00    +0.000 A 
ATOM      9  C7  E3R A1201       9.852   3.520 -46.460  0.00  0.00    +0.000 C 
ATOM     10  C8  E3R A1201      11.316   4.052 -46.607  0.00  0.00    +0.000 C 
ATOM     11  C9  E3R A1201      12.052   4.189 -45.217  0.00  0.00    +0.000 C 
ATOM     12  C10 E3R A1201       9.492   2.953 -47.868  0.00  0.00    +0.000 C 
ATOM     13  C11 E3R A1201       9.535   4.095 -48.940  0.00  0.00    +0.000 C 
ATOM     14  C12 E3R A1201      10.858   4.932 -48.892  0.00  0.00    +0.000 C 
ATOM     15  C13 E3R A1201      11.263   5.346 -47.456  0.00  0.00    +0.000 C 
ATOM     16  C15 E3R A1201      13.547   4.465 -45.428  0.00  0.00    +0.000 C 
ATOM     17  C16 E3R A1201      11.494   5.295 -44.283  0.00  0.00    +0.000 C 
ENDROOT
BRANCH   3  18
ATOM     18  C17 E3R A1201       9.270  -0.106 -42.001  0.00  0.00    +0.000 C 
ATOM     19  C19 E3R A1201       7.971  -0.923 -42.010  0.00  0.00    +0.000 C 
ATOM     20  C20 E3R A1201       9.203   0.750 -40.725  0.00  0.00    +0.000 C 
BRANCH  18  21
ATOM     21  C18 E3R A1201      10.472  -1.064 -41.823  0.00  0.00    +0.000 C 
BRANCH  21  22
ATOM     22  C21 E3R A1201      10.592  -2.117 -42.931  0.00  0.00    +0.000 C 
BRANCH  22  23
ATOM     23  C22 E3R A1201      12.046  -2.570 -43.013  0.00  0.00    +0.000 C 
BRANCH  23  24
ATOM     24  C23 E3R A1201      12.352  -2.986 -44.444  0.00  0.00    +0.000 C 
BRANCH  24  25
ATOM     25  C24 E3R A1201      12.112  -4.486 -44.590  0.00  0.00    +0.000 C 
BRANCH  25  27
ATOM     26  N1  E3R A1201      14.312  -5.619 -45.255  0.00  0.00    +0.000 NA
ATOM     27  C25 E3R A1201      13.354  -5.125 -44.963  0.00  0.00    +0.000 C 
ENDBRANCH  25  27
ENDBRANCH  24  25
ENDBRANCH  23  24
ENDBRANCH  22  23
ENDBRANCH  21  22
ENDBRANCH  18  21
ENDBRANCH   3  18
BRANCH  13  29
ATOM     28  O2  E3R A1201       8.051   3.256 -50.658  0.00  0.00    +0.000 OA
ATOM     29  C14 E3R A1201       9.425   3.481 -50.331  0.00  0.00    +0.000 C 
ENDBRANCH  13  29
TORSDOF 8
