MODEL 1
REMARK VINA RESULT:    51.110      0.000      0.000
REMARK INTER + INTRA:          98.065
REMARK INTER:                  95.929
REMARK INTRA:                   2.136
REMARK UNBOUND:                 2.136
REMARK  18 active torsions:
REMARK  status: ('A' for Active; 'I' for Inactive)
REMARK    1  A    between atoms: N2_4  and  C3_5 
REMARK    2  A    between atoms: C4_7  and  C5_8 
REMARK    3  A    between atoms: C5_8  and  O2_9 
REMARK    4  A    between atoms: O2_9  and  P1_10 
REMARK    5  A    between atoms: P1_10  and  O5_13 
REMARK    6  A    between atoms: O5_13  and  P2_14 
REMARK    7  A    between atoms: P2_14  and  O8_17 
REMARK    8  A    between atoms: O8_17  and  P3_18 
REMARK    9  A    between atoms: P3_18  and  O11_21 
REMARK   10  A    between atoms: O11_21  and  C6_22 
REMARK   11  A    between atoms: C6_22  and  C7_23 
REMARK   12  A    between atoms: C8_25  and  N3_26 
REMARK   13  A    between atoms: C11_29  and  N4_30 
REMARK   14  A    between atoms: C13_34  and  O14_35 
REMARK   15  A    between atoms: C14_36  and  O15_37 
REMARK   16  A    between atoms: C15_38  and  O16_39 
REMARK   17  A    between atoms: C16_40  and  O17_41 
REMARK   18  A    between atoms: C18_44  and  N7_45 
ROOT
HETATM    1  P1  UNL     1     -10.822  19.468 -23.553  1.00  0.00     0.417 P 
HETATM    2  O3  UNL     1     -11.397  20.701 -24.213  1.00  0.00    -0.624 OA
HETATM    3  O4  UNL     1      -9.197  19.751 -23.156  1.00  0.00    -0.624 OA
ENDROOT
BRANCH   1   4
HETATM    4  O2  UNL     1     -10.917  18.172 -24.657  1.00  0.00    -0.287 OA
BRANCH   4   5
HETATM    5  C5  UNL     1     -12.217  18.154 -25.198  1.00  0.00     0.216 C 
BRANCH   5   6
HETATM    6  C4  UNL     1     -12.525  19.513 -25.836  1.00  0.00     0.180 C 
HETATM    7  O1  UNL     1     -11.948  19.585 -27.126  1.00  0.00    -0.353 OA
HETATM    8  C3  UNL     1     -12.982  19.800 -28.065  1.00  0.00     0.262 C 
HETATM    9  C16 UNL     1     -14.179  20.383 -27.308  1.00  0.00     0.198 C 
HETATM   10  C15 UNL     1     -14.032  19.761 -25.939  1.00  0.00     0.182 C 
BRANCH   8  11
HETATM   11  N2  UNL     1     -13.316  18.536 -28.747  1.00  0.00    -0.295 N 
HETATM   12  C2  UNL     1     -14.073  17.509 -28.267  1.00  0.00     0.190 A 
HETATM   13  N1  UNL     1     -14.301  16.552 -29.202  1.00  0.00    -0.340 N 
HETATM   14  C1  UNL     1     -15.079  15.330 -29.035  1.00  0.00     0.157 C 
HETATM   15  C20 UNL     1     -13.698  17.012 -30.314  1.00  0.00     0.151 A 
HETATM   16  C17 UNL     1     -13.126  18.211 -30.042  1.00  0.00     0.184 A 
HETATM   17  C19 UNL     1     -13.647  16.493 -31.605  1.00  0.00     0.290 A 
HETATM   18  N6  UNL     1     -12.526  18.957 -31.002  1.00  0.00    -0.044 NA
HETATM   19  C18 UNL     1     -12.468  18.460 -32.274  1.00  0.00     0.703 A 
HETATM   20  N8  UNL     1     -13.016  17.233 -32.566  1.00  0.00    -0.153 N 
HETATM   21  H30 UNL     1     -12.959  16.862 -33.541  1.00  0.00     0.187 HD
HETATM   22  O18 UNL     1     -14.168  15.381 -31.888  1.00  0.00    -0.265 OA
BRANCH  19  23
HETATM   23  N7  UNL     1     -11.824  19.219 -33.297  1.00  0.00    -0.233 N 
HETATM   24  H28 UNL     1     -10.797  19.400 -33.250  1.00  0.00     0.174 HD
HETATM   25  H29 UNL     1     -12.359  19.559 -34.129  1.00  0.00     0.174 HD
ENDBRANCH  19  23
ENDBRANCH   8  11
BRANCH   9  26
HETATM   26  O17 UNL     1     -14.110  21.792 -27.261  1.00  0.00    -0.388 OA
HETATM   27  H27 UNL     1     -15.019  22.156 -27.435  1.00  0.00     0.210 HD
ENDBRANCH   9  26
BRANCH  10  28
HETATM   28  O16 UNL     1     -14.477  20.615 -24.914  1.00  0.00    -0.390 OA
HETATM   29  H25 UNL     1     -13.679  21.122 -24.609  1.00  0.00     0.210 HD
ENDBRANCH  10  28
ENDBRANCH   5   6
ENDBRANCH   4   5
ENDBRANCH   1   4
BRANCH   1  30
HETATM   30  O5  UNL     1     -11.731  19.079 -22.166  1.00  0.00    -0.180 OA
BRANCH  30  31
HETATM   31  P2  UNL     1     -11.319  17.492 -21.705  1.00  0.00     0.427 P 
HETATM   32  O6  UNL     1     -10.664  16.776 -22.868  1.00  0.00    -0.624 OA
HETATM   33  O7  UNL     1     -10.200  17.583 -20.440  1.00  0.00    -0.624 OA
BRANCH  31  34
HETATM   34  O8  UNL     1     -12.716  16.707 -21.115  1.00  0.00    -0.180 OA
BRANCH  34  35
HETATM   35  P3  UNL     1     -13.696  17.826 -20.288  1.00  0.00     0.417 P 
HETATM   36  O9  UNL     1     -14.625  18.517 -21.260  1.00  0.00    -0.624 OA
HETATM   37  O10 UNL     1     -12.743  18.973 -19.480  1.00  0.00    -0.624 OA
BRANCH  35  38
HETATM   38  O11 UNL     1     -14.602  16.937 -19.153  1.00  0.00    -0.287 OA
BRANCH  38  39
HETATM   39  C6  UNL     1     -13.845  15.835 -18.706  1.00  0.00     0.216 C 
BRANCH  39  40
HETATM   40  C7  UNL     1     -13.904  15.770 -17.174  1.00  0.00     0.180 C 
HETATM   41  O12 UNL     1     -12.642  15.374 -16.669  1.00  0.00    -0.353 OA
HETATM   42  C8  UNL     1     -12.259  16.317 -15.694  1.00  0.00     0.264 C 
HETATM   43  C13 UNL     1     -12.991  17.618 -15.984  1.00  0.00     0.198 C 
HETATM   44  C14 UNL     1     -14.299  17.122 -16.557  1.00  0.00     0.182 C 
BRANCH  42  45
HETATM   45  N3  UNL     1     -10.795  16.517 -15.702  1.00  0.00    -0.278 N 
HETATM   46  C9  UNL     1     -10.014  15.780 -16.552  1.00  0.00     0.102 A 
HETATM   47  C10 UNL     1      -8.633  15.953 -16.582  1.00  0.00     0.067 A 
HETATM   48  C11 UNL     1      -8.060  16.897 -15.733  1.00  0.00     0.128 A 
HETATM   49  N5  UNL     1      -8.855  17.625 -14.908  1.00  0.00    -0.177 NA
HETATM   50  C12 UNL     1     -10.204  17.449 -14.884  1.00  0.00     0.352 A 
HETATM   51  O13 UNL     1     -10.897  18.162 -14.108  1.00  0.00    -0.244 OA
BRANCH  48  52
HETATM   52  N4  UNL     1      -6.649  17.107 -15.730  1.00  0.00    -0.384 N 
HETATM   53  H18 UNL     1      -6.104  17.051 -16.619  1.00  0.00     0.157 HD
HETATM   54  H19 UNL     1      -6.140  17.336 -14.845  1.00  0.00     0.157 HD
ENDBRANCH  48  52
ENDBRANCH  42  45
BRANCH  43  55
HETATM   55  O14 UNL     1     -13.162  18.368 -14.809  1.00  0.00    -0.388 OA
HETATM   56  H21 UNL     1     -13.346  17.714 -14.084  1.00  0.00     0.210 HD
ENDBRANCH  43  55
BRANCH  44  57
HETATM   57  O15 UNL     1     -15.251  16.915 -15.543  1.00  0.00    -0.390 OA
HETATM   58  H23 UNL     1     -16.145  16.945 -15.977  1.00  0.00     0.210 HD
ENDBRANCH  44  57
ENDBRANCH  39  40
ENDBRANCH  38  39
ENDBRANCH  35  38
ENDBRANCH  34  35
ENDBRANCH  31  34
ENDBRANCH  30  31
ENDBRANCH   1  30
TORSDOF 18
ENDMDL
